Version 4
SHEET 1 1620 680
WIRE 16 80 -48 80
WIRE 368 80 112 80
WIRE 576 80 368 80
WIRE 880 80 656 80
WIRE 1248 80 880 80
WIRE 880 96 880 80
WIRE 1248 128 1248 80
WIRE 96 176 96 128
WIRE 208 176 96 176
WIRE 368 176 368 80
WIRE 368 176 288 176
WIRE 880 192 880 176
WIRE 880 192 816 192
WIRE 976 192 880 192
WIRE 976 240 976 192
WIRE 1248 240 1248 208
WIRE 1248 240 976 240
WIRE 96 272 96 176
WIRE 208 272 96 272
WIRE 368 272 368 176
WIRE 368 272 272 272
WIRE -48 336 -48 80
WIRE 96 352 96 272
WIRE 144 352 96 352
WIRE 240 352 208 352
WIRE 272 352 240 352
WIRE 368 352 368 272
WIRE 368 352 336 352
WIRE 976 368 976 240
WIRE 240 384 240 352
WIRE 816 384 816 192
WIRE 240 496 240 448
WIRE 816 544 816 448
WIRE 976 544 976 448
WIRE 976 544 816 544
WIRE 816 592 816 544
WIRE -48 624 -48 416
WIRE 240 624 240 576
FLAG 240 624 0
FLAG -48 624 0
FLAG 816 592 0
SYMBOL voltage -48 320 R0
SYMATTR InstName V1
SYMATTR Value 14
SYMATTR SpiceLine Rser=1
SYMBOL polcap 208 288 R270
WINDOW 0 32 32 VTop 2
WINDOW 3 0 32 VBottom 2
SYMATTR InstName C1
SYMATTR Value 10µ
SYMATTR Description Capacitor
SYMATTR Type cap
SYMATTR SpiceLine V=106M008ATE055 Rser=55m Lser=0 mfg="   ---" pn="   ---" type="   ---"
SYMBOL polcap 800 384 R0
WINDOW 0 24 8 Left 2
WINDOW 3 24 56 Left 2
SYMATTR InstName C2
SYMATTR Value 6.8m
SYMATTR SpiceLine Rser=3m Lser=0 mfg="   ---" pn="   ---" type="   ---"
SYMATTR Description Capacitor
SYMATTR Type cap
SYMBOL res 960 352 R0
SYMATTR InstName R1
SYMATTR Value 10R
SYMBOL nmos 16 128 R270
SYMATTR InstName M1
SYMATTR Value IRF6607
SYMBOL res 304 160 R90
WINDOW 0 0 56 VBottom 2
WINDOW 3 32 56 VTop 2
SYMATTR InstName R3
SYMATTR Value 100K
SYMBOL cap 224 384 R0
SYMATTR InstName C3
SYMATTR Value 10nF
SYMBOL voltage 240 480 R0
SYMATTR InstName V2
SYMATTR Value PULSE(0 5 1 0 0 0.0005 0.001 2100)
SYMBOL schottky 208 336 R90
WINDOW 0 0 32 VBottom 2
WINDOW 3 32 32 VTop 2
SYMATTR InstName D1
SYMATTR Value BAT54
SYMBOL schottky 336 336 R90
WINDOW 0 0 32 VBottom 2
WINDOW 3 32 32 VTop 2
SYMATTR InstName D2
SYMATTR Value BAT54
SYMBOL voltage 1248 112 R0
SYMATTR InstName V3
SYMATTR Value SINE(0 1 60000 3 0 0 60000)
SYMBOL res 864 80 R0
SYMATTR InstName R2
SYMATTR Value 1R
SYMBOL ind 672 64 R90
WINDOW 0 5 56 VBottom 2
WINDOW 3 32 56 VTop 2
SYMATTR InstName L1
SYMATTR Value 0.01µ
SYMATTR SpiceLine Ipk=1.5 Rser=820m Rpar=1.171K Cpar=0 mfg="   ---" pn="   ---"
TEXT 1016 272 Left 2 !.tran 10s startup
